# generated using pymatgen
data_Bi2Ru2O7
_symmetry_space_group_name_H-M   'P 1'
_cell_length_a   10.28108888
_cell_length_b   10.28108888
_cell_length_c   10.28108888
_cell_angle_alpha   90.00000000
_cell_angle_beta   90.00000000
_cell_angle_gamma   90.00000000
_symmetry_Int_Tables_number   1
_chemical_formula_structural   Bi2Ru2O7
_chemical_formula_sum   'Bi16 Ru16 O56'
_cell_volume   1086.71920186
_cell_formula_units_Z   8
loop_
 _symmetry_equiv_pos_site_id
 _symmetry_equiv_pos_as_xyz
  1  'x, y, z'
loop_
 _atom_type_symbol
 _atom_type_oxidation_number
  Bi3+  3.0
  Ru4+  4.0
  O2-  -2.0
loop_
 _atom_site_type_symbol
 _atom_site_label
 _atom_site_symmetry_multiplicity
 _atom_site_fract_x
 _atom_site_fract_y
 _atom_site_fract_z
 _atom_site_occupancy
  Bi3+  Bi0  1  0.37500000  0.87500000  0.12500000  1
  Bi3+  Bi1  1  0.37500000  0.62500000  0.37500000  1
  Bi3+  Bi2  1  0.12500000  0.87500000  0.37500000  1
  Bi3+  Bi3  1  0.12500000  0.62500000  0.12500000  1
  Bi3+  Bi4  1  0.37500000  0.37500000  0.62500000  1
  Bi3+  Bi5  1  0.37500000  0.12500000  0.87500000  1
  Bi3+  Bi6  1  0.12500000  0.37500000  0.87500000  1
  Bi3+  Bi7  1  0.12500000  0.12500000  0.62500000  1
  Bi3+  Bi8  1  0.87500000  0.87500000  0.62500000  1
  Bi3+  Bi9  1  0.87500000  0.62500000  0.87500000  1
  Bi3+  Bi10  1  0.62500000  0.87500000  0.87500000  1
  Bi3+  Bi11  1  0.62500000  0.62500000  0.62500000  1
  Bi3+  Bi12  1  0.87500000  0.37500000  0.12500000  1
  Bi3+  Bi13  1  0.87500000  0.12500000  0.37500000  1
  Bi3+  Bi14  1  0.62500000  0.37500000  0.37500000  1
  Bi3+  Bi15  1  0.62500000  0.12500000  0.12500000  1
  Ru4+  Ru16  1  0.87500000  0.87500000  0.12500000  1
  Ru4+  Ru17  1  0.37500000  0.12500000  0.37500000  1
  Ru4+  Ru18  1  0.62500000  0.87500000  0.37500000  1
  Ru4+  Ru19  1  0.12500000  0.12500000  0.12500000  1
  Ru4+  Ru20  1  0.87500000  0.37500000  0.62500000  1
  Ru4+  Ru21  1  0.37500000  0.62500000  0.87500000  1
  Ru4+  Ru22  1  0.62500000  0.37500000  0.87500000  1
  Ru4+  Ru23  1  0.12500000  0.62500000  0.62500000  1
  Ru4+  Ru24  1  0.37500000  0.87500000  0.62500000  1
  Ru4+  Ru25  1  0.87500000  0.12500000  0.87500000  1
  Ru4+  Ru26  1  0.12500000  0.87500000  0.87500000  1
  Ru4+  Ru27  1  0.62500000  0.12500000  0.62500000  1
  Ru4+  Ru28  1  0.37500000  0.37500000  0.12500000  1
  Ru4+  Ru29  1  0.87500000  0.62500000  0.37500000  1
  Ru4+  Ru30  1  0.12500000  0.37500000  0.37500000  1
  Ru4+  Ru31  1  0.62500000  0.62500000  0.12500000  1
  O2-  O32  1  0.25000000  0.75000000  0.25000000  1
  O2-  O33  1  0.00000000  0.00000000  0.50000000  1
  O2-  O34  1  0.25000000  0.04623214  0.25000000  1
  O2-  O35  1  0.50000000  0.79623214  0.50000000  1
  O2-  O36  1  0.25000000  0.25000000  0.04623214  1
  O2-  O37  1  0.04623214  0.25000000  0.25000000  1
  O2-  O38  1  0.45376786  0.25000000  0.25000000  1
  O2-  O39  1  0.25000000  0.25000000  0.45376786  1
  O2-  O40  1  0.25000000  0.45376786  0.25000000  1
  O2-  O41  1  0.29623214  0.00000000  0.50000000  1
  O2-  O42  1  0.70376786  0.00000000  0.50000000  1
  O2-  O43  1  0.50000000  0.20376786  0.50000000  1
  O2-  O44  1  0.50000000  0.00000000  0.29623214  1
  O2-  O45  1  0.00000000  0.00000000  0.20376786  1
  O2-  O46  1  0.25000000  0.25000000  0.75000000  1
  O2-  O47  1  0.00000000  0.50000000  0.00000000  1
  O2-  O48  1  0.25000000  0.54623214  0.75000000  1
  O2-  O49  1  0.50000000  0.29623214  0.00000000  1
  O2-  O50  1  0.25000000  0.75000000  0.54623214  1
  O2-  O51  1  0.04623214  0.75000000  0.75000000  1
  O2-  O52  1  0.45376786  0.75000000  0.75000000  1
  O2-  O53  1  0.25000000  0.75000000  0.95376786  1
  O2-  O54  1  0.25000000  0.95376786  0.75000000  1
  O2-  O55  1  0.29623214  0.50000000  0.00000000  1
  O2-  O56  1  0.70376786  0.50000000  0.00000000  1
  O2-  O57  1  0.50000000  0.70376786  0.00000000  1
  O2-  O58  1  0.50000000  0.50000000  0.79623214  1
  O2-  O59  1  0.00000000  0.50000000  0.70376786  1
  O2-  O60  1  0.75000000  0.75000000  0.75000000  1
  O2-  O61  1  0.50000000  0.00000000  0.00000000  1
  O2-  O62  1  0.75000000  0.04623214  0.75000000  1
  O2-  O63  1  0.00000000  0.79623214  0.00000000  1
  O2-  O64  1  0.75000000  0.25000000  0.54623214  1
  O2-  O65  1  0.54623214  0.25000000  0.75000000  1
  O2-  O66  1  0.95376786  0.25000000  0.75000000  1
  O2-  O67  1  0.75000000  0.25000000  0.95376786  1
  O2-  O68  1  0.75000000  0.45376786  0.75000000  1
  O2-  O69  1  0.79623214  0.00000000  0.00000000  1
  O2-  O70  1  0.20376786  0.00000000  0.00000000  1
  O2-  O71  1  0.00000000  0.20376786  0.00000000  1
  O2-  O72  1  0.00000000  0.00000000  0.79623214  1
  O2-  O73  1  0.50000000  0.00000000  0.70376786  1
  O2-  O74  1  0.75000000  0.25000000  0.25000000  1
  O2-  O75  1  0.50000000  0.50000000  0.50000000  1
  O2-  O76  1  0.75000000  0.54623214  0.25000000  1
  O2-  O77  1  0.00000000  0.29623214  0.50000000  1
  O2-  O78  1  0.75000000  0.75000000  0.04623214  1
  O2-  O79  1  0.54623214  0.75000000  0.25000000  1
  O2-  O80  1  0.95376786  0.75000000  0.25000000  1
  O2-  O81  1  0.75000000  0.75000000  0.45376786  1
  O2-  O82  1  0.75000000  0.95376786  0.25000000  1
  O2-  O83  1  0.79623214  0.50000000  0.50000000  1
  O2-  O84  1  0.20376786  0.50000000  0.50000000  1
  O2-  O85  1  0.00000000  0.70376786  0.50000000  1
  O2-  O86  1  0.00000000  0.50000000  0.29623214  1
  O2-  O87  1  0.50000000  0.50000000  0.20376786  1
